25

C      0.352372   -2.305853   -0.721779
N     -0.873319   -1.977797   -1.019117
C     -1.579208   -0.794006   -0.617481
C     -1.571636   -0.361336    0.721226
C     -2.301758    0.769344    1.099264
C     -3.062761    1.459722    0.152227
C     -3.102946    1.013920   -1.171862
C     -2.373059   -0.116733   -1.554368
F     -2.425722   -0.544856   -2.840620
C      1.321405   -1.407812   -0.062179
C      2.431089   -1.805438    0.659531
N      3.145641   -0.719133    1.013460
N      2.518723    0.344177    0.535123
C      3.032649    1.702801    0.636201
C      1.422384   -0.032196   -0.147666
H      0.702144   -3.287089   -1.014061
H     -1.007255   -0.902301    1.469992
H     -2.284091    1.105396    2.127940
H     -3.629339    2.333740    0.446365
H     -3.703230    1.543119   -1.900711
H      2.711223   -2.823016    0.897698
H      3.624728    1.944331   -0.271097
H      2.191626    2.422608    0.728585
H      3.682222    1.797580    1.531961
H      0.778119    0.640831   -0.698633
