25

C      0.299475    0.074988    0.253174
N     -0.648501   -0.061056   -0.624494
C     -2.059574   -0.140666   -0.357115
C     -2.584091   -0.346145    0.937018
C     -3.967253   -0.424437    1.131198
C     -4.837002   -0.306935    0.044653
C     -4.325541   -0.116317   -1.240698
C     -2.943998   -0.037858   -1.440296
C      1.699635    0.130265   -0.179548
C      2.194870    0.031214   -1.467590
N      3.539579    0.115367   -1.429570
N      3.894514    0.277297   -0.163834
C      5.276677    0.342714    0.289913
C      2.805900    0.278381    0.627520
H      0.086281    0.174221    1.307766
H     -1.942783   -0.465315    1.797547
H     -4.365103   -0.582283    2.125439
H     -5.906632   -0.368960    0.198078
H     -4.999414   -0.030449   -2.083340
H     -2.559082    0.108726   -2.441875
H      1.617568   -0.102796   -2.372857
H      5.931183    0.697745   -0.534093
H      5.364717    1.047980    1.143537
H      5.610058   -0.666097    0.611236
H      2.818518    0.370414    1.706368
