33

C      1.139579   -0.833491   -0.335777
N      2.031688   -0.020896    0.144184
C      3.445116   -0.255428    0.113507
C      4.129405   -1.334311   -0.420818
N      5.451053   -1.132937   -0.245279
N      5.603287    0.021392    0.388247
C      6.897694    0.612372    0.697802
C      4.404875    0.592233    0.612502
C     -0.299733   -0.510087   -0.260983
C     -1.236064   -1.408797   -0.788510
C     -2.603612   -1.126600   -0.730270
C     -3.071349    0.066273   -0.141204
N     -4.491957    0.360913   -0.080240
C     -4.961228    1.739502    0.107255
C     -5.483625   -0.714675   -0.205069
C     -2.121787    0.965210    0.387044
C     -0.754680    0.680606    0.328074
H      1.438603   -1.765106   -0.799833
H      3.709324   -2.201160   -0.911627
H      7.671472   -0.181283    0.766989
H      6.849556    1.148285    1.669561
H      7.180080    1.327840   -0.102488
H      4.246330    1.550378    1.090969
H     -0.908897   -2.332829   -1.249921
H     -3.288844   -1.844190   -1.159352
H     -4.444462    2.414907   -0.607233
H     -4.758871    2.068725    1.147853
H     -6.052320    1.829586   -0.078977
H     -5.514751   -1.079433   -1.253003
H     -6.501517   -0.367344    0.071587
H     -5.220718   -1.551772    0.476002
H     -2.428291    1.888386    0.858663
H     -0.055356    1.393730    0.746451
