33

C      2.104040   -0.353606   -0.738148
N      1.230757    0.180554    0.061619
C     -0.195681    0.000326    0.017738
C     -0.816633   -1.005359   -0.746298
C     -2.208269   -1.139280   -0.741972
C     -3.016790   -0.278989    0.028967
N     -4.462385   -0.417058    0.032398
C     -5.093560   -1.675713   -0.383915
C     -5.317931    0.700224    0.451516
C     -2.382555    0.715868    0.800441
C     -0.991545    0.846888    0.795316
C      3.532992   -0.078902   -0.555436
C      4.571856   -0.553584   -1.332582
N      5.736067   -0.068864   -0.856490
N      5.455793    0.679913    0.199477
C      6.452240    1.431298    0.949829
C      4.126610    0.709986    0.407879
H      1.806552   -0.985813   -1.562331
H     -0.242095   -1.703416   -1.336908
H     -2.644862   -1.918213   -1.351384
H     -6.174298   -1.695848   -0.129217
H     -4.993940   -1.802561   -1.482178
H     -4.612441   -2.530145    0.137784
H     -6.383783    0.516992    0.199215
H     -5.007254    1.630269   -0.070214
H     -5.241287    0.842808    1.549681
H     -2.954179    1.391354    1.421365
H     -0.529114    1.617308    1.400063
H      4.487180   -1.202116   -2.194511
H      6.185591    1.446960    2.028016
H      7.450413    0.957704    0.836845
H      6.497472    2.472440    0.567635
H      3.631037    1.268574    1.192101
