33

C      0.278997    0.112628    0.948529
N      0.675689    0.084332   -0.286857
C      2.036857   -0.072501   -0.704255
C      2.471998   -0.109435   -2.011145
N      3.812335   -0.254425   -2.017567
N      4.216641   -0.322069   -0.756920
C      5.613875   -0.414944   -0.357262
C      3.166958   -0.202419    0.077882
C     -1.149902    0.296243    1.300366
C     -1.465540    0.577251    2.641515
C     -2.788192    0.794244    3.033516
C     -3.815964    0.731247    2.093758
C     -3.525803    0.442771    0.759941
C     -2.201698    0.217464    0.349806
N     -1.947730   -0.126470   -1.021423
C     -2.285931    0.832258   -2.071627
C     -1.809719   -1.537768   -1.377078
H      1.000670    0.035528    1.752366
H      1.858417   -0.028038   -2.898465
H      6.214324   -0.866831   -1.174984
H      6.004984    0.600044   -0.136069
H      5.709866   -1.051096    0.548235
H      3.231710   -0.201734    1.157983
H     -0.683326    0.640307    3.388526
H     -3.015874    1.014616    4.068504
H     -4.840263    0.899415    2.400439
H     -4.335011    0.379420    0.043321
H     -2.154842    1.872258   -1.702851
H     -3.340134    0.687028   -2.388583
H     -1.617444    0.689254   -2.946837
H     -2.808075   -1.963494   -1.611260
H     -1.147939   -1.644509   -2.262543
H     -1.359937   -2.110574   -0.537796
