37

C      0.617418   -0.835119   -0.163228
N      1.832731   -1.292836   -0.171319
C      3.008240   -0.474325   -0.124687
C      4.306345   -0.937022   -0.140073
N      5.143577    0.118951   -0.099929
N      4.404354    1.217944   -0.046320
C      4.953991    2.566425   -0.057032
C      3.095588    0.902856   -0.072488
C     -0.543079   -1.755436   -0.214681
C     -0.348717   -3.142281   -0.370960
C     -1.442280   -4.008547   -0.447654
C     -2.741279   -3.505769   -0.371622
C     -2.951436   -2.135205   -0.213611
C     -1.863151   -1.255671   -0.129050
N     -2.113139    0.142433    0.052687
C     -2.078297    0.791595    1.348133
C     -2.315684    2.268024    1.060842
C     -2.910871    2.332012   -0.346559
C     -2.539627    1.016944   -1.021331
H      0.442013    0.231344   -0.122202
H      4.623229   -1.970298   -0.186854
H      5.992641    2.557119    0.336063
H      4.961156    2.956140   -1.096339
H      4.337636    3.234361    0.581570
H      2.286046    1.620868   -0.063357
H      0.648041   -3.559293   -0.441163
H     -1.281626   -5.071980   -0.569771
H     -3.586433   -4.179142   -0.433004
H     -3.963047   -1.754294   -0.149092
H     -2.887801    0.382607    1.990771
H     -1.093021    0.637724    1.838535
H     -2.999425    2.721677    1.810740
H     -1.344527    2.810215    1.076376
H     -2.514552    3.202752   -0.912671
H     -4.017797    2.415778   -0.276800
H     -3.416550    0.585100   -1.550844
H     -1.700666    1.164350   -1.735256
