37

C      1.125196   -0.534397   -0.121412
N      0.523821   -1.488365    0.521188
C     -0.697511   -2.105735    0.086826
C     -0.795112   -3.503708    0.152245
F      0.239960   -4.236693    0.634463
C     -1.942529   -4.155630   -0.306027
C     -3.008649   -3.417789   -0.820719
C     -2.940708   -2.023964   -0.859687
C     -1.798830   -1.352995   -0.393404
N     -1.802705    0.081856   -0.338167
C     -1.788053    0.825672    0.909967
C     -2.114544    2.264904    0.530182
C     -1.926834    2.351545   -0.983330
C     -2.043662    0.923528   -1.495997
C      2.348458    0.065944    0.417553
C      3.007531   -0.256682    1.590033
N      4.093856    0.531450    1.714675
N      4.122458    1.341566    0.667145
C      5.186678    2.302217    0.412112
C      3.085261    1.081373   -0.149995
H      0.740584   -0.175754   -1.067987
H     -2.004331   -5.235568   -0.265916
H     -3.896879   -3.925819   -1.173567
H     -3.793397   -1.465040   -1.222744
H     -2.552571    0.422254    1.609056
H     -0.784990    0.768903    1.381255
H     -1.452872    2.984090    1.060107
H     -3.174132    2.487242    0.785212
H     -2.687295    3.014650   -1.449834
H     -0.910402    2.744212   -1.207417
H     -3.064924    0.740509   -1.893485
H     -1.288548    0.723800   -2.286372
H      2.721494   -1.018676    2.302949
H      5.938497    1.851318   -0.268726
H      4.768814    3.218294   -0.056950
H      5.681129    2.584392    1.365686
H      2.885741    1.587097   -1.086481
