41

C      0.174016    0.445001   -0.381049
N      1.022778   -0.381087    0.149794
C      2.443954   -0.306042   -0.011595
C      3.183210    0.616187   -0.732719
N      4.488393    0.294125   -0.628208
N      4.578777   -0.782288    0.140126
C      5.829435   -1.469664    0.429677
C      3.353238   -1.185634    0.524304
C     -1.285753    0.307874   -0.141932
C     -2.120960    1.442630   -0.289175
N     -1.569084    2.726187   -0.630291
C     -0.881687    3.499300    0.403343
C     -2.060464    3.426099   -1.816081
C     -3.501550    1.329289   -0.069273
C     -4.061673    0.108979    0.299898
C     -3.253100   -1.015706    0.443813
C     -1.870859   -0.934916    0.219175
N     -1.082571   -2.133413    0.308747
C     -1.039284   -2.869711    1.570887
C     -0.717419   -2.831301   -0.923164
H      0.528605    1.277662   -0.974167
H      2.810617    1.456040   -1.302532
H      5.969251   -2.304268   -0.288642
H      6.681634   -0.763378    0.338435
H      5.811541   -1.874236    1.464008
H      3.140961   -2.054619    1.134252
H     -1.605164    4.173687    0.907898
H     -0.427586    2.828052    1.163330
H     -0.070953    4.106033   -0.052350
H     -2.933906    4.056314   -1.546215
H     -2.363013    2.697253   -2.598406
H     -1.260316    4.071596   -2.235994
H     -4.141921    2.196457   -0.170031
H     -5.127818    0.033442    0.470802
H     -3.706127   -1.961845    0.711990
H     -0.069065   -3.401321    1.667815
H     -1.866689   -3.609420    1.603751
H     -1.138108   -2.171724    2.429855
H     -1.501469   -3.575203   -1.177336
H     -0.614277   -2.114032   -1.765476
H      0.254405   -3.352396   -0.791404
