41

C      0.940203    0.231002    0.228614
N      2.091072    0.752564    0.528936
C      3.318691    0.017875    0.612838
C      3.535695   -1.329694    0.378354
N      4.846653   -1.589791    0.556904
N      5.439776   -0.456709    0.905545
C      6.874095   -0.325180    1.120853
C      4.544509    0.548233    0.936432
C     -0.282059    1.067500    0.167987
C     -0.220752    2.443917    0.454302
C     -1.373530    3.231263    0.412446
C     -2.609616    2.667303    0.086441
O     -3.737061    3.501747    0.061113
C     -5.054191    3.064409   -0.257195
C     -2.681074    1.293184   -0.203493
C     -1.529199    0.495779   -0.166809
N     -1.641914   -0.898113   -0.472608
C     -2.057726   -1.890000    0.498248
C     -2.253258   -3.175305   -0.297040
C     -1.582967   -2.942938   -1.652767
C     -1.454622   -1.433194   -1.806221
H      0.863917   -0.828490    0.024835
H      2.805474   -2.072525    0.088199
H      7.300439   -1.298771    1.443092
H      7.074326    0.429877    1.910989
H      7.363780   -0.007039    0.176410
H      4.769557    1.581752    1.167199
H      0.718531    2.915706    0.714631
H     -1.306037    4.288237    0.637680
H     -5.081469    2.655566   -1.289268
H     -5.386330    2.292705    0.468941
H     -5.747171    3.928446   -0.198960
H     -3.624861    0.831354   -0.461265
H     -1.262057   -2.017960    1.263780
H     -3.007461   -1.580994    0.986729
H     -1.805255   -4.046458    0.228922
H     -3.340149   -3.359778   -0.447092
H     -0.570345   -3.403377   -1.648265
H     -2.180866   -3.383934   -2.479833
H     -2.245509   -1.038487   -2.480764
H     -0.451238   -1.159682   -2.198843
