40

C      0.899362    0.498110   -0.156327
N      2.190971    0.575163   -0.045570
C      3.036596   -0.506996    0.364043
C      2.679439   -1.803341    0.695893
N      3.798131   -2.490575    1.002947
N      4.826304   -1.662284    0.885467
C      6.214417   -2.060617    1.072614
C      4.404212   -0.448200    0.485241
C      0.100913    1.670249   -0.586667
C      0.728264    2.903418   -0.853744
C     -0.023792    4.011236   -1.253038
C     -1.407924    3.905846   -1.391222
C     -2.045091    2.691751   -1.131622
C     -1.302662    1.572447   -0.731125
N     -1.989518    0.339516   -0.481003
C     -2.504602    0.067102    0.865577
C     -2.991011   -1.380729    0.987602
C     -3.977428   -1.741267   -0.135534
C     -3.555459   -1.228348   -1.532363
C     -2.140030   -0.643018   -1.558723
H      0.392609   -0.429913    0.069690
H      1.685668   -2.229130    0.707052
H      6.662154   -2.319000    0.090340
H      6.269454   -2.944859    1.742309
H      6.790901   -1.229689    1.532025
H      5.042060    0.404363    0.289330
H      1.800529    3.014829   -0.752912
H      0.468334    4.953886   -1.455108
H     -1.987751    4.765784   -1.700705
H     -3.119631    2.617469   -1.243569
H     -1.702407    0.239454    1.615603
H     -3.344160    0.762066    1.083831
H     -2.113728   -2.062781    0.938519
H     -3.478902   -1.528717    1.975092
H     -4.975837   -1.321009    0.116490
H     -4.088288   -2.847053   -0.165412
H     -3.622477   -2.054769   -2.272721
H     -4.265646   -0.435789   -1.856111
H     -1.393992   -1.455838   -1.425643
H     -1.959979   -0.168768   -2.548744
