40

C      1.999154   -1.057183    0.253336
N      0.737247   -0.907808   -0.012421
C     -0.290942   -1.910329    0.079596
C      0.000045   -3.285367    0.202916
C     -1.035094   -4.223349    0.256066
C     -2.364855   -3.807261    0.177101
C     -2.665134   -2.450909    0.043095
C     -1.636107   -1.500756   -0.003489
N     -1.965404   -0.112145   -0.143961
C     -1.853734    0.779459    1.017848
C     -1.923005    2.249855    0.592671
C     -3.168144    2.536930   -0.263962
C     -3.498206    1.425412   -1.286038
C     -2.364349    0.410035   -1.454891
C      2.914637    0.078534    0.107029
C      2.608051    1.367545   -0.291510
N      3.731774    2.111633   -0.275554
N      4.726875    1.324979    0.105853
C      6.093367    1.785325    0.309025
C      4.268247    0.085444    0.360483
H      2.397121   -1.995939    0.610798
H      1.016205   -3.649006    0.236785
H     -0.804947   -5.276903    0.349679
H     -3.163280   -4.537022    0.214633
H     -3.698872   -2.134997   -0.021436
H     -2.677996    0.556098    1.728991
H     -0.888498    0.607579    1.540532
H     -1.931854    2.899545    1.494270
H     -1.010384    2.498255    0.007163
H     -4.042727    2.677710    0.408643
H     -3.011816    3.497939   -0.800637
H     -4.405586    0.879248   -0.946256
H     -3.734464    1.879503   -2.272544
H     -2.711377   -0.414232   -2.116266
H     -1.489699    0.895489   -1.939283
H      1.630807    1.743720   -0.565155
H      6.243498    2.041646    1.378510
H      6.811255    0.989364    0.017546
H      6.287937    2.685078   -0.312317
H      4.870251   -0.743119    0.712284
