49

C      0.098703   -0.190504   -0.018351
N      1.151757    0.307521    0.553928
C      2.490805   -0.150364    0.335058
C      3.622346    0.385400    0.910118
N      4.699023   -0.285216    0.452981
N      4.267098   -1.226171   -0.375013
C      5.146709   -2.113807   -1.122606
C      2.926644   -1.169710   -0.488046
C     -1.256494    0.326823    0.291335
C     -2.372597   -0.533830    0.165672
N     -2.208726   -1.903964   -0.222490
C     -1.719710   -2.931607    0.676722
C     -1.620257   -4.190689   -0.173442
C     -2.481944   -3.931702   -1.409677
C     -2.630581   -2.418370   -1.510600
C     -3.659616   -0.060565    0.451008
C     -3.851664    1.253569    0.872501
C     -2.762021    2.113246    0.998242
C     -1.467131    1.668831    0.700274
N     -0.386952    2.608549    0.762816
C      0.133777    3.134031    2.009100
C      1.292635    4.035736    1.608294
C      1.092219    4.342134    0.123972
C      0.170624    3.252934   -0.411397
H      0.193343   -1.031942   -0.692483
H      3.663137    1.212411    1.606696
H      6.096328   -2.263491   -0.567435
H      5.369524   -1.667745   -2.113828
H      4.661192   -3.101927   -1.264479
H      2.331023   -1.813133   -1.122812
H     -2.447043   -3.076331    1.504422
H     -0.726226   -2.656954    1.091754
H     -0.563734   -4.345689   -0.485382
H     -1.971086   -5.085342    0.385256
H     -2.011026   -4.353302   -2.323783
H     -3.482334   -4.395919   -1.267748
H     -3.687172   -2.140297   -1.716023
H     -1.970456   -2.010857   -2.306275
H     -4.513062   -0.720851    0.361061
H     -4.849136    1.608989    1.096587
H     -2.926250    3.138037    1.307166
H      0.485368    2.305710    2.661604
H     -0.655314    3.718932    2.529459
H      1.310313    4.966268    2.216043
H      2.252203    3.490996    1.746389
H      0.600976    5.333996    0.014009
H      2.062101    4.354186   -0.419250
H      0.743271    2.517287   -1.015481
H     -0.640587    3.694695   -1.030171
