55

C      0.257361    0.288835    0.038072
N     -0.530833    1.104819   -0.591403
C     -0.456088    2.532255   -0.504421
C     -1.312394    3.416665   -1.122975
N     -0.938083    4.673185   -0.808684
N      0.132156    4.592932   -0.030947
C      0.784413    5.748444    0.569092
C      0.451937    3.304092    0.192554
C      0.145016   -1.176943   -0.146868
C     -1.093882   -1.799095   -0.446013
N     -2.317132   -1.045881   -0.494887
C     -3.093541   -0.959295   -1.734558
C     -4.476808   -1.584340   -1.524399
C     -5.163553   -0.991898   -0.285458
C     -4.281946   -1.140263    0.963007
C     -2.906701   -0.506938    0.734496
C     -1.146236   -3.186960   -0.639557
C      0.005224   -3.963325   -0.521070
C      1.223289   -3.363501   -0.208661
C      1.304494   -1.977471   -0.023973
N      2.582727   -1.383404    0.247383
C      3.191313   -1.569812    1.570172
C      4.498299   -0.778705    1.700172
C      4.317891    0.631540    1.130094
C      3.917733    0.618915   -0.360684
C      3.321227   -0.719589   -0.833758
H      1.050871    0.673441    0.664046
H     -2.158664    3.165517   -1.748218
H      0.281474    6.002454    1.525696
H      0.721303    6.617983   -0.118948
H      1.855547    5.527075    0.764899
H      1.271918    2.967882    0.813795
H     -2.571177   -1.479115   -2.567548
H     -3.207758    0.109407   -2.018455
H     -4.371494   -2.683723   -1.398991
H     -5.106029   -1.398471   -2.421009
H     -5.383019    0.084480   -0.460584
H     -6.129197   -1.514855   -0.116356
H     -4.777212   -0.648269    1.827836
H     -4.155931   -2.218972    1.202788
H     -2.253970   -0.712947    1.611225
H     -3.017281    0.595062    0.637999
H     -2.089249   -3.669712   -0.860836
H     -0.047888   -5.034617   -0.666493
H      2.112737   -3.975452   -0.125734
H      2.479540   -1.214180    2.346950
H      3.390656   -2.648087    1.746713
H      5.312464   -1.301412    1.151504
H      4.789366   -0.715687    2.770733
H      5.262254    1.203644    1.256880
H      3.531396    1.156105    1.716977
H      3.180483    1.431703   -0.539907
H      4.809782    0.846372   -0.983794
H      4.141695   -1.391743   -1.166830
H      2.661500   -0.538148   -1.711065
