38

C      3.485824   -0.643888    1.224721
N      2.730768   -1.315738    0.315322
C      1.712524   -0.564793   -0.164220
C      0.780469   -1.051144   -1.207261
C     -0.434111   -0.566364   -1.468433
C     -1.178857    0.379577   -0.611529
C     -1.758663    1.597226   -0.970722
C     -1.714723    2.236927   -2.318592
O     -2.381239    2.132513    0.064464
C     -2.234792    1.318066    1.081800
C     -2.728021    1.477136    2.374703
C     -2.459322    0.461383    3.310682
C     -1.716321   -0.679991    2.934846
C     -1.232391   -0.814276    1.620952
C     -1.504603    0.215883    0.719795
C     -1.042472   -1.212542   -2.666536
F     -2.351217   -1.591419   -2.415719
F     -1.003958   -0.342706   -3.742448
C     -0.144524   -2.428828   -2.926385
F     -0.742728   -3.575718   -2.425595
F      0.094892   -2.600551   -4.280646
C      1.154088   -2.135043   -2.161770
F      1.603413   -3.258348   -1.486932
F      2.141763   -1.677227   -3.018034
S      1.736619    0.983565    0.509126
C      3.089093    0.667216    1.453131
C      3.688028    1.604277    2.446856
H      4.327933   -1.105229    1.723255
H     -1.970081    3.313642   -2.232231
H     -0.695584    2.146947   -2.749397
H     -2.450861    1.745260   -2.987324
H     -3.301601    2.352532    2.649763
H     -2.827727    0.553494    4.324047
H     -1.519564   -1.457167    3.661728
H     -0.666891   -1.688068    1.324754
H      3.518589    2.653831    2.127713
H      3.215291    1.443022    3.437777
H      4.780958    1.426544    2.528338
