38

C      2.246512    1.902090   -0.058528
N      1.412601    0.847796   -0.258803
C      1.993515   -0.334856    0.051098
C      1.329777   -1.651990   -0.094759
C      0.028932   -1.846788   -0.311590
C     -1.010755   -0.800710   -0.308598
S     -2.014107   -0.472083   -1.628184
C     -2.870394    0.752111   -0.867327
C     -3.902352    1.527126   -1.390829
C     -4.478819    2.506892   -0.569512
C     -4.017047    2.691558    0.747145
C     -2.975725    1.896909    1.255196
C     -2.403662    0.918303    0.430346
C     -1.364093    0.031161    0.767231
C     -0.719564   -0.015223    2.124751
C     -0.284704   -3.272037   -0.601619
F     -0.571722   -3.420961   -1.948441
F     -1.361860   -3.700846    0.156581
C      1.001612   -4.021388   -0.228305
F      0.845916   -4.651381    0.997604
F      1.323611   -4.972884   -1.183314
C      2.087565   -2.937644   -0.131881
F      2.848720   -3.094189    1.014905
F      2.910378   -2.959510   -1.245974
S      3.580882   -0.109348    0.572494
C      3.514890    1.559919    0.391433
C      4.599789    2.513761    0.762470
H      1.933902    2.922187   -0.237791
H     -4.250399    1.379412   -2.404919
H     -5.281785    3.124403   -0.950509
H     -4.467203    3.451370    1.372727
H     -2.627357    2.050893    2.268078
H     -0.082755    0.882880    2.264631
H     -1.500702   -0.035650    2.912917
H     -0.095082   -0.923528    2.247819
H      4.465394    2.834152    1.816353
H      4.566645    3.404938    0.101071
H      5.589446    2.023156    0.652958
