43

F          0.88511       -0.07548        0.32282
C          2.20334        0.02654        0.01505
F          2.28047        0.19870       -1.32607
C          2.97066       -1.17424        0.46630
F          2.35650       -2.34955        0.22750
F          4.18353       -1.22568       -0.15810
C          3.15235       -0.84773        1.93618
F          2.03792       -1.13949        2.65394
F          4.14740       -1.63901        2.38454
C          3.38567        0.68130        1.98499
C          3.98830        1.38551        3.18580
C          4.68032        0.80749        4.21581
C          5.02441       -0.64584        4.41280
S          5.23185        1.94173        5.46979
C          4.49970        3.27411        4.67315
C          3.86029        2.85437        3.51426
C          3.13902        3.84221        2.87769
C          3.10197        5.16294        3.34061
C          3.78206        5.52219        4.50245
C          4.49391        4.55797        5.19890
O          4.50405        1.75751        6.71304
O          6.66008        2.15718        5.41745
C          2.83206        1.14310        0.82194
C          2.78801        2.47216        0.34071
N          3.78133        3.11854       -0.23046
C          3.38479        4.39844       -0.59918
C          2.07492        4.73053       -0.25414
C          1.56466        6.02605       -0.41238
C          2.40383        6.98939       -0.97252
C          3.68171        6.66207       -1.40640
C          4.18727        5.37438       -1.22134
S          1.27770        3.32494        0.33216
H          4.63828       -1.21780        3.59508
H          4.59169       -0.99403        5.32737
H          6.08764       -0.75798        4.45589
H          2.60640        3.59879        2.02793
H          2.56771        5.87473        2.81817
H          3.75606        6.49667        4.84119
H          4.99762        4.78523        6.07048
H          0.60148        6.25935       -0.12452
H          2.06949        7.96125       -1.06599
H          4.26304        7.37769       -1.87005
H          5.14105        5.13937       -1.53772
