26

C      1.065212    1.194107   -1.759030
N     -0.104350    1.705287   -1.493014
C     -1.006617    1.323320   -0.442456
C     -0.549975    1.072563    0.864436
C     -1.456067    0.736918    1.874929
C     -2.826704    0.672257    1.595631
C     -3.759778    0.327924    2.636196
N     -4.509915    0.051052    3.472780
C     -3.288230    0.955943    0.304222
C     -2.381600    1.290951   -0.706432
C      1.610840   -0.022104   -1.116845
C      2.968940   -0.060165   -0.765176
C      3.515196   -1.208188   -0.182560
C      2.714279   -2.332452    0.034749
C      1.368275   -2.314176   -0.339827
C      0.818543   -1.168599   -0.923318
H      1.669280    1.673801   -2.518124
H      0.502516    1.148547    1.104561
H     -1.089123    0.536611    2.874458
H     -4.347541    0.921092    0.079553
H     -2.748317    1.513480   -1.700654
H      3.601949    0.803215   -0.930582
H      4.560326   -1.226917    0.098198
H      3.138821   -3.220633    0.484558
H      0.752490   -3.190814   -0.185654
H     -0.218449   -1.183022   -1.233754
